/*--------------------------------*- C++ -*----------------------------------*\
| =========                 |                                                 |
| \\      /  F ield         | OpenFOAM: The Open Source CFD Toolbox           |
|  \\    /   O peration     | Version:  2112                                  |
|   \\  /    A nd           | Website:  www.openfoam.com                      |
|    \\/     M anipulation  |                                                 |
\*---------------------------------------------------------------------------*/
FoamFile
{
    version     2.0;
    format      binary;
    arch        "LSB;label=32;scalar=64";
    class       polyBoundaryMesh;
    location    "constant/polyMesh";
    object      boundary;
}
// * * * * * * * * * * * * * * * * * * * * * * * * * * * * * * * * * * * * * //

7
(
    inlet
    {
        type            patch;
        nFaces          0;
        startFace       74704;
    }
    walls
    {
        type            patch;
        nFaces          110;
        startFace       74704;
    }
    outlet
    {
        type            patch;
        nFaces          0;
        startFace       74814;
    }
    airfoil
    {
        type            wall;
        inGroups        1(wall);
        nFaces          2592;
        startFace       74814;
    }
    procBoundary5to1
    {
        type            processor;
        inGroups        1(processor);
        nFaces          1400;
        startFace       77406;
        matchTolerance  0.0001;
        transform       unknown;
        myProcNo        5;
        neighbProcNo    1;
    }
    procBoundary5to4
    {
        type            processor;
        inGroups        1(processor);
        nFaces          588;
        startFace       78806;
        matchTolerance  0.0001;
        transform       unknown;
        myProcNo        5;
        neighbProcNo    4;
    }
    procBoundary5to6
    {
        type            processor;
        inGroups        1(processor);
        nFaces          654;
        startFace       79394;
        matchTolerance  0.0001;
        transform       unknown;
        myProcNo        5;
        neighbProcNo    6;
    }
)

// ************************************************************************* //
