/*--------------------------------*- C++ -*----------------------------------*\
| =========                 |                                                 |
| \\      /  F ield         | OpenFOAM: The Open Source CFD Toolbox           |
|  \\    /   O peration     | Version:  2112                                  |
|   \\  /    A nd           | Website:  www.openfoam.com                      |
|    \\/     M anipulation  |                                                 |
\*---------------------------------------------------------------------------*/
FoamFile
{
    version     2.0;
    format      binary;
    arch        "LSB;label=32;scalar=64";
    class       polyBoundaryMesh;
    location    "constant/polyMesh";
    object      boundary;
}
// * * * * * * * * * * * * * * * * * * * * * * * * * * * * * * * * * * * * * //

7
(
    inlet
    {
        type            patch;
        nFaces          0;
        startFace       104754;
    }
    walls
    {
        type            patch;
        nFaces          519;
        startFace       104754;
    }
    outlet
    {
        type            patch;
        nFaces          10;
        startFace       105273;
    }
    airfoil
    {
        type            wall;
        inGroups        1(wall);
        nFaces          3070;
        startFace       105283;
    }
    procBoundary7to2
    {
        type            processor;
        inGroups        1(processor);
        nFaces          9;
        startFace       108353;
        matchTolerance  0.0001;
        transform       unknown;
        myProcNo        7;
        neighbProcNo    2;
    }
    procBoundary7to3
    {
        type            processor;
        inGroups        1(processor);
        nFaces          2799;
        startFace       108362;
        matchTolerance  0.0001;
        transform       unknown;
        myProcNo        7;
        neighbProcNo    3;
    }
    procBoundary7to6
    {
        type            processor;
        inGroups        1(processor);
        nFaces          562;
        startFace       111161;
        matchTolerance  0.0001;
        transform       unknown;
        myProcNo        7;
        neighbProcNo    6;
    }
)

// ************************************************************************* //
