/*--------------------------------*- C++ -*----------------------------------*\
| =========                 |                                                 |
| \\      /  F ield         | OpenFOAM: The Open Source CFD Toolbox           |
|  \\    /   O peration     | Version:  v2006                                 |
|   \\  /    A nd           | Website:  www.openfoam.com                      |
|    \\/     M anipulation  |                                                 |
\*---------------------------------------------------------------------------*/
FoamFile
{
    version     2.0;
    format      ascii;
    class       dictionary;
    object      blockMeshDict;
}

// * * * * * * * * * * * * * * * * * * * * * * * * * * * * * * * * * * * * * //

scale   1;

vertices
(
    ($xmin  $ymin  $zmin)
    ($xmax  $ymin  $zmin)
    ($xmax $ymax  $zmin)
    ($xmin  $ymax  $zmin)
    ($xmin  $ymin   $zmax)
    ($xmax  $ymin   $zmax)
    ($xmax   $ymax   $zmax)
    ($xmin   $ymax  $zmax)
);

blocks
(
    hex (0 1 2 3 4 5 6 7) ($nxgrid $nygrid $nzgrid) simpleGrading (1 1 1)
);

edges
(
);

boundary
(
    inlet
    {
        type patch;
        faces
        (
            (0 4 7 3)
        );
    }

    walls
    {
        type patch;
        faces
        (
            (4 5 6 7)
            (0 3 2 1)
            (3 7 6 2)
            (1 5 4 0)
        );
    }

    outlet
    {
        type patch;
        faces
        (
            (2 6 5 1)
        );
    }

);

mergePatchPairs
(
);

// ************************************************************************* //
