/*--------------------------------*- C++ -*----------------------------------*\
| =========                 |                                                 |
| \\      /  F ield         | OpenFOAM: The Open Source CFD Toolbox           |
|  \\    /   O peration     | Version:  2112                                  |
|   \\  /    A nd           | Website:  www.openfoam.com                      |
|    \\/     M anipulation  |                                                 |
\*---------------------------------------------------------------------------*/
FoamFile
{
    version     2.0;
    format      binary;
    arch        "LSB;label=32;scalar=64";
    class       polyBoundaryMesh;
    location    "constant/polyMesh";
    object      boundary;
}
// * * * * * * * * * * * * * * * * * * * * * * * * * * * * * * * * * * * * * //

7
(
    inlet
    {
        type            patch;
        nFaces          0;
        startFace       74712;
    }
    walls
    {
        type            patch;
        nFaces          110;
        startFace       74712;
    }
    outlet
    {
        type            patch;
        nFaces          0;
        startFace       74822;
    }
    airfoil
    {
        type            wall;
        inGroups        1(wall);
        nFaces          2560;
        startFace       74822;
    }
    procBoundary6to2
    {
        type            processor;
        inGroups        1(processor);
        nFaces          1396;
        startFace       77382;
        matchTolerance  0.0001;
        transform       unknown;
        myProcNo        6;
        neighbProcNo    2;
    }
    procBoundary6to5
    {
        type            processor;
        inGroups        1(processor);
        nFaces          654;
        startFace       78778;
        matchTolerance  0.0001;
        transform       unknown;
        myProcNo        6;
        neighbProcNo    5;
    }
    procBoundary6to7
    {
        type            processor;
        inGroups        1(processor);
        nFaces          1028;
        startFace       79432;
        matchTolerance  0.0001;
        transform       unknown;
        myProcNo        6;
        neighbProcNo    7;
    }
)

// ************************************************************************* //
