/*--------------------------------*- C++ -*----------------------------------*\
| =========                 |                                                 |
| \\      /  F ield         | OpenFOAM: The Open Source CFD Toolbox           |
|  \\    /   O peration     | Version:  2112                                  |
|   \\  /    A nd           | Website:  www.openfoam.com                      |
|    \\/     M anipulation  |                                                 |
\*---------------------------------------------------------------------------*/
FoamFile
{
    version     2.0;
    format      binary;
    arch        "LSB;label=32;scalar=64";
    class       polyBoundaryMesh;
    location    "constant/polyMesh";
    object      boundary;
}
// * * * * * * * * * * * * * * * * * * * * * * * * * * * * * * * * * * * * * //

7
(
    inlet
    {
        type            patch;
        nFaces          0;
        startFace       81790;
    }
    walls
    {
        type            patch;
        nFaces          306;
        startFace       81790;
    }
    outlet
    {
        type            patch;
        nFaces          28;
        startFace       82096;
    }
    airfoil
    {
        type            wall;
        inGroups        1(wall);
        nFaces          2407;
        startFace       82124;
    }
    procBoundary3to2
    {
        type            processor;
        inGroups        1(processor);
        nFaces          2010;
        startFace       84531;
        matchTolerance  0.0001;
        transform       unknown;
        myProcNo        3;
        neighbProcNo    2;
    }
    procBoundary3to6
    {
        type            processor;
        inGroups        1(processor);
        nFaces          30;
        startFace       86541;
        matchTolerance  0.0001;
        transform       unknown;
        myProcNo        3;
        neighbProcNo    6;
    }
    procBoundary3to7
    {
        type            processor;
        inGroups        1(processor);
        nFaces          1003;
        startFace       86571;
        matchTolerance  0.0001;
        transform       unknown;
        myProcNo        3;
        neighbProcNo    7;
    }
)

// ************************************************************************* //
