/*--------------------------------*- C++ -*----------------------------------*\
| =========                 |                                                 |
| \\      /  F ield         | OpenFOAM: The Open Source CFD Toolbox           |
|  \\    /   O peration     | Version:  2112                                  |
|   \\  /    A nd           | Website:  www.openfoam.com                      |
|    \\/     M anipulation  |                                                 |
\*---------------------------------------------------------------------------*/
FoamFile
{
    version     2.0;
    format      binary;
    arch        "LSB;label=32;scalar=64";
    class       polyBoundaryMesh;
    location    "constant/polyMesh";
    object      boundary;
}
// * * * * * * * * * * * * * * * * * * * * * * * * * * * * * * * * * * * * * //

7
(
    inlet
    {
        type            patch;
        nFaces          10;
        startFace       104773;
    }
    walls
    {
        type            patch;
        nFaces          296;
        startFace       104783;
    }
    outlet
    {
        type            patch;
        nFaces          0;
        startFace       105079;
    }
    airfoil
    {
        type            wall;
        inGroups        1(wall);
        nFaces          3015;
        startFace       105079;
    }
    procBoundary0to1
    {
        type            processor;
        inGroups        1(processor);
        nFaces          646;
        startFace       108094;
        matchTolerance  0.0001;
        transform       unknown;
        myProcNo        0;
        neighbProcNo    1;
    }
    procBoundary0to4
    {
        type            processor;
        inGroups        1(processor);
        nFaces          2662;
        startFace       108740;
        matchTolerance  0.0001;
        transform       unknown;
        myProcNo        0;
        neighbProcNo    4;
    }
    procBoundary0to5
    {
        type            processor;
        inGroups        1(processor);
        nFaces          12;
        startFace       111402;
        matchTolerance  0.0001;
        transform       unknown;
        myProcNo        0;
        neighbProcNo    5;
    }
)

// ************************************************************************* //
